[root]
type=Root
children=system
eventq_index=0
full_system=true
sim_quantum=0
time_sync_enable=false
time_sync_period=100000000000
time_sync_spin_threshold=100000000

[system]
type=LinuxArmSystem
children=bridge cf0 clk_domain cpu0 cpu1 cpu2 cpu3 cpu_clk_domain cpu_voltage_domain dvfs_handler intrctrl iobridge iobus mem_ctrls membus pci_ide realview terminal vncserver voltage_domain
atags_addr=134217728
boot_loader=/usr/local/src/gem5/images/binaries/boot_emm.arm64 /usr/local/src/gem5/images/binaries/boot_emm.arm
boot_osflags=earlyprintk=pl011,0x1c090000 console=ttyAMA0 lpj=19988480 norandmaps rw loglevel=8 mem=2GB root=/dev/sda1
cache_line_size=64
clk_domain=system.clk_domain
default_p_state=UNDEFINED
dtb_filename=/usr/local/src/erudite/gem5/system/arm/dt/armv8_gem5_v1_4cpu.dtb
early_kernel_symbols=false
enable_context_switch_stats_dump=false
eventq_index=0
exit_on_work_items=false
flags_addr=469827632
gic_cpu_addr=738205696
have_large_asid_64=false
have_lpae=true
have_security=false
have_virtualization=false
highest_el_is_64=false
init_param=0
kernel=/usr/local/src/erudite/linux-arm-gem5/vmlinux
kernel_addr_check=true
load_addr_mask=134217727
load_offset=2147483648
m5ops_base=268500992
machine_type=DTOnly
mem_mode=atomic
mem_ranges=2147483648:4294967295:0:0:0:0
memories=system.mem_ctrls system.realview.nvmem
mmap_using_noreserve=false
multi_proc=true
multi_thread=false
num_work_ids=16
p_state_clk_gate_bins=20
p_state_clk_gate_max=1000000000000
p_state_clk_gate_min=1000
panic_on_oops=false
panic_on_panic=false
phys_addr_range_64=40
power_model=Null
readfile=
reset_addr_64=0
symbolfile=
thermal_components=
thermal_model=Null
work_begin_ckpt_count=0
work_begin_cpu_id_exit=-1
work_begin_exit_count=0
work_cpus_ckpt_count=0
work_end_ckpt_count=0
work_end_exit_count=0
work_item_id=-1
system_port=system.membus.slave[1]

[system.bridge]
type=Bridge
clk_domain=system.clk_domain
default_p_state=UNDEFINED
delay=50000
eventq_index=0
p_state_clk_gate_bins=20
p_state_clk_gate_max=1000000000000
p_state_clk_gate_min=1000
power_model=Null
ranges=201326592:536870911:0:0:0:0 788529152:2147483647:0:0:0:0
req_size=16
resp_size=16
master=system.iobus.slave[0]
slave=system.membus.master[0]

[system.cf0]
type=IdeDisk
children=image
delay=1000000
driveID=master
eventq_index=0
image=system.cf0.image

[system.cf0.image]
type=CowDiskImage
children=child
child=system.cf0.image.child
eventq_index=0
image_file=
read_only=false
table_size=65536

[system.cf0.image.child]
type=RawDiskImage
eventq_index=0
image_file=/usr/local/src/gem5/images/disks/abulila_image.img
read_only=true

[system.clk_domain]
type=SrcClockDomain
clock=1000
domain_id=-1
eventq_index=0
init_perf_level=0
voltage_domain=system.voltage_domain

[system.cpu0]
type=AtomicSimpleCPU
children=dstage2_mmu dtb interrupts isa istage2_mmu itb tracer
branchPred=Null
checker=Null
clk_domain=system.cpu_clk_domain
cpu_id=0
default_p_state=UNDEFINED
do_checkpoint_insts=true
do_quiesce=true
do_statistics_insts=true
dstage2_mmu=system.cpu0.dstage2_mmu
dtb=system.cpu0.dtb
eventq_index=0
fastmem=false
function_trace=false
function_trace_start=0
interrupts=system.cpu0.interrupts
isa=system.cpu0.isa
istage2_mmu=system.cpu0.istage2_mmu
itb=system.cpu0.itb
max_insts_all_threads=0
max_insts_any_thread=0
max_loads_all_threads=0
max_loads_any_thread=0
numThreads=1
p_state_clk_gate_bins=20
p_state_clk_gate_max=1000000000000
p_state_clk_gate_min=1000
power_model=Null
profile=0
progress_interval=0
simpoint_start_insts=
simulate_data_stalls=false
simulate_inst_stalls=false
socket_id=0
switched_out=false
syscallRetryLatency=10000
system=system
tracer=system.cpu0.tracer
wait_for_remote_gdb=false
width=1
workload=
dcache_port=system.membus.slave[4]
icache_port=system.membus.slave[3]

[system.cpu0.dstage2_mmu]
type=ArmStage2MMU
children=stage2_tlb
eventq_index=0
stage2_tlb=system.cpu0.dstage2_mmu.stage2_tlb
sys=system
tlb=system.cpu0.dtb

[system.cpu0.dstage2_mmu.stage2_tlb]
type=ArmTLB
children=walker
eventq_index=0
is_stage2=true
size=32
sys=system
walker=system.cpu0.dstage2_mmu.stage2_tlb.walker

[system.cpu0.dstage2_mmu.stage2_tlb.walker]
type=ArmTableWalker
clk_domain=system.cpu_clk_domain
default_p_state=UNDEFINED
eventq_index=0
is_stage2=true
num_squash_per_cycle=2
p_state_clk_gate_bins=20
p_state_clk_gate_max=1000000000000
p_state_clk_gate_min=1000
power_model=Null
sys=system

[system.cpu0.dtb]
type=ArmTLB
children=walker
eventq_index=0
is_stage2=false
size=64
sys=system
walker=system.cpu0.dtb.walker

[system.cpu0.dtb.walker]
type=ArmTableWalker
clk_domain=system.cpu_clk_domain
default_p_state=UNDEFINED
eventq_index=0
is_stage2=false
num_squash_per_cycle=2
p_state_clk_gate_bins=20
p_state_clk_gate_max=1000000000000
p_state_clk_gate_min=1000
power_model=Null
sys=system
port=system.membus.slave[6]

[system.cpu0.interrupts]
type=ArmInterrupts
eventq_index=0

[system.cpu0.isa]
type=ArmISA
decoderFlavour=Generic
eventq_index=0
fpsid=1090793632
id_aa64afr0_el1=0
id_aa64afr1_el1=0
id_aa64dfr0_el1=1052678
id_aa64dfr1_el1=0
id_aa64isar0_el1=0
id_aa64isar1_el1=0
id_aa64mmfr0_el1=15728642
id_aa64mmfr1_el1=0
id_isar0=34607377
id_isar1=34677009
id_isar2=555950401
id_isar3=17899825
id_isar4=268501314
id_isar5=0
id_mmfr0=270536963
id_mmfr1=0
id_mmfr2=19070976
id_mmfr3=34611729
midr=1091551472
pmu=Null
system=system
vecRegRenameMode=Full

[system.cpu0.istage2_mmu]
type=ArmStage2MMU
children=stage2_tlb
eventq_index=0
stage2_tlb=system.cpu0.istage2_mmu.stage2_tlb
sys=system
tlb=system.cpu0.itb

[system.cpu0.istage2_mmu.stage2_tlb]
type=ArmTLB
children=walker
eventq_index=0
is_stage2=true
size=32
sys=system
walker=system.cpu0.istage2_mmu.stage2_tlb.walker

[system.cpu0.istage2_mmu.stage2_tlb.walker]
type=ArmTableWalker
clk_domain=system.cpu_clk_domain
default_p_state=UNDEFINED
eventq_index=0
is_stage2=true
num_squash_per_cycle=2
p_state_clk_gate_bins=20
p_state_clk_gate_max=1000000000000
p_state_clk_gate_min=1000
power_model=Null
sys=system

[system.cpu0.itb]
type=ArmTLB
children=walker
eventq_index=0
is_stage2=false
size=64
sys=system
walker=system.cpu0.itb.walker

[system.cpu0.itb.walker]
type=ArmTableWalker
clk_domain=system.cpu_clk_domain
default_p_state=UNDEFINED
eventq_index=0
is_stage2=false
num_squash_per_cycle=2
p_state_clk_gate_bins=20
p_state_clk_gate_max=1000000000000
p_state_clk_gate_min=1000
power_model=Null
sys=system
port=system.membus.slave[5]

[system.cpu0.tracer]
type=ExeTracer
eventq_index=0

[system.cpu1]
type=AtomicSimpleCPU
children=dstage2_mmu dtb interrupts isa istage2_mmu itb tracer
branchPred=Null
checker=Null
clk_domain=system.cpu_clk_domain
cpu_id=1
default_p_state=UNDEFINED
do_checkpoint_insts=true
do_quiesce=true
do_statistics_insts=true
dstage2_mmu=system.cpu1.dstage2_mmu
dtb=system.cpu1.dtb
eventq_index=0
fastmem=false
function_trace=false
function_trace_start=0
interrupts=system.cpu1.interrupts
isa=system.cpu1.isa
istage2_mmu=system.cpu1.istage2_mmu
itb=system.cpu1.itb
max_insts_all_threads=0
max_insts_any_thread=0
max_loads_all_threads=0
max_loads_any_thread=0
numThreads=1
p_state_clk_gate_bins=20
p_state_clk_gate_max=1000000000000
p_state_clk_gate_min=1000
power_model=Null
profile=0
progress_interval=0
simpoint_start_insts=
simulate_data_stalls=false
simulate_inst_stalls=false
socket_id=0
switched_out=false
syscallRetryLatency=10000
system=system
tracer=system.cpu1.tracer
wait_for_remote_gdb=false
width=1
workload=
dcache_port=system.membus.slave[8]
icache_port=system.membus.slave[7]

[system.cpu1.dstage2_mmu]
type=ArmStage2MMU
children=stage2_tlb
eventq_index=0
stage2_tlb=system.cpu1.dstage2_mmu.stage2_tlb
sys=system
tlb=system.cpu1.dtb

[system.cpu1.dstage2_mmu.stage2_tlb]
type=ArmTLB
children=walker
eventq_index=0
is_stage2=true
size=32
sys=system
walker=system.cpu1.dstage2_mmu.stage2_tlb.walker

[system.cpu1.dstage2_mmu.stage2_tlb.walker]
type=ArmTableWalker
clk_domain=system.cpu_clk_domain
default_p_state=UNDEFINED
eventq_index=0
is_stage2=true
num_squash_per_cycle=2
p_state_clk_gate_bins=20
p_state_clk_gate_max=1000000000000
p_state_clk_gate_min=1000
power_model=Null
sys=system

[system.cpu1.dtb]
type=ArmTLB
children=walker
eventq_index=0
is_stage2=false
size=64
sys=system
walker=system.cpu1.dtb.walker

[system.cpu1.dtb.walker]
type=ArmTableWalker
clk_domain=system.cpu_clk_domain
default_p_state=UNDEFINED
eventq_index=0
is_stage2=false
num_squash_per_cycle=2
p_state_clk_gate_bins=20
p_state_clk_gate_max=1000000000000
p_state_clk_gate_min=1000
power_model=Null
sys=system
port=system.membus.slave[10]

[system.cpu1.interrupts]
type=ArmInterrupts
eventq_index=0

[system.cpu1.isa]
type=ArmISA
decoderFlavour=Generic
eventq_index=0
fpsid=1090793632
id_aa64afr0_el1=0
id_aa64afr1_el1=0
id_aa64dfr0_el1=1052678
id_aa64dfr1_el1=0
id_aa64isar0_el1=0
id_aa64isar1_el1=0
id_aa64mmfr0_el1=15728642
id_aa64mmfr1_el1=0
id_isar0=34607377
id_isar1=34677009
id_isar2=555950401
id_isar3=17899825
id_isar4=268501314
id_isar5=0
id_mmfr0=270536963
id_mmfr1=0
id_mmfr2=19070976
id_mmfr3=34611729
midr=1091551472
pmu=Null
system=system
vecRegRenameMode=Full

[system.cpu1.istage2_mmu]
type=ArmStage2MMU
children=stage2_tlb
eventq_index=0
stage2_tlb=system.cpu1.istage2_mmu.stage2_tlb
sys=system
tlb=system.cpu1.itb

[system.cpu1.istage2_mmu.stage2_tlb]
type=ArmTLB
children=walker
eventq_index=0
is_stage2=true
size=32
sys=system
walker=system.cpu1.istage2_mmu.stage2_tlb.walker

[system.cpu1.istage2_mmu.stage2_tlb.walker]
type=ArmTableWalker
clk_domain=system.cpu_clk_domain
default_p_state=UNDEFINED
eventq_index=0
is_stage2=true
num_squash_per_cycle=2
p_state_clk_gate_bins=20
p_state_clk_gate_max=1000000000000
p_state_clk_gate_min=1000
power_model=Null
sys=system

[system.cpu1.itb]
type=ArmTLB
children=walker
eventq_index=0
is_stage2=false
size=64
sys=system
walker=system.cpu1.itb.walker

[system.cpu1.itb.walker]
type=ArmTableWalker
clk_domain=system.cpu_clk_domain
default_p_state=UNDEFINED
eventq_index=0
is_stage2=false
num_squash_per_cycle=2
p_state_clk_gate_bins=20
p_state_clk_gate_max=1000000000000
p_state_clk_gate_min=1000
power_model=Null
sys=system
port=system.membus.slave[9]

[system.cpu1.tracer]
type=ExeTracer
eventq_index=0

[system.cpu2]
type=AtomicSimpleCPU
children=dstage2_mmu dtb interrupts isa istage2_mmu itb tracer
branchPred=Null
checker=Null
clk_domain=system.cpu_clk_domain
cpu_id=2
default_p_state=UNDEFINED
do_checkpoint_insts=true
do_quiesce=true
do_statistics_insts=true
dstage2_mmu=system.cpu2.dstage2_mmu
dtb=system.cpu2.dtb
eventq_index=0
fastmem=false
function_trace=false
function_trace_start=0
interrupts=system.cpu2.interrupts
isa=system.cpu2.isa
istage2_mmu=system.cpu2.istage2_mmu
itb=system.cpu2.itb
max_insts_all_threads=0
max_insts_any_thread=0
max_loads_all_threads=0
max_loads_any_thread=0
numThreads=1
p_state_clk_gate_bins=20
p_state_clk_gate_max=1000000000000
p_state_clk_gate_min=1000
power_model=Null
profile=0
progress_interval=0
simpoint_start_insts=
simulate_data_stalls=false
simulate_inst_stalls=false
socket_id=0
switched_out=false
syscallRetryLatency=10000
system=system
tracer=system.cpu2.tracer
wait_for_remote_gdb=false
width=1
workload=
dcache_port=system.membus.slave[12]
icache_port=system.membus.slave[11]

[system.cpu2.dstage2_mmu]
type=ArmStage2MMU
children=stage2_tlb
eventq_index=0
stage2_tlb=system.cpu2.dstage2_mmu.stage2_tlb
sys=system
tlb=system.cpu2.dtb

[system.cpu2.dstage2_mmu.stage2_tlb]
type=ArmTLB
children=walker
eventq_index=0
is_stage2=true
size=32
sys=system
walker=system.cpu2.dstage2_mmu.stage2_tlb.walker

[system.cpu2.dstage2_mmu.stage2_tlb.walker]
type=ArmTableWalker
clk_domain=system.cpu_clk_domain
default_p_state=UNDEFINED
eventq_index=0
is_stage2=true
num_squash_per_cycle=2
p_state_clk_gate_bins=20
p_state_clk_gate_max=1000000000000
p_state_clk_gate_min=1000
power_model=Null
sys=system

[system.cpu2.dtb]
type=ArmTLB
children=walker
eventq_index=0
is_stage2=false
size=64
sys=system
walker=system.cpu2.dtb.walker

[system.cpu2.dtb.walker]
type=ArmTableWalker
clk_domain=system.cpu_clk_domain
default_p_state=UNDEFINED
eventq_index=0
is_stage2=false
num_squash_per_cycle=2
p_state_clk_gate_bins=20
p_state_clk_gate_max=1000000000000
p_state_clk_gate_min=1000
power_model=Null
sys=system
port=system.membus.slave[14]

[system.cpu2.interrupts]
type=ArmInterrupts
eventq_index=0

[system.cpu2.isa]
type=ArmISA
decoderFlavour=Generic
eventq_index=0
fpsid=1090793632
id_aa64afr0_el1=0
id_aa64afr1_el1=0
id_aa64dfr0_el1=1052678
id_aa64dfr1_el1=0
id_aa64isar0_el1=0
id_aa64isar1_el1=0
id_aa64mmfr0_el1=15728642
id_aa64mmfr1_el1=0
id_isar0=34607377
id_isar1=34677009
id_isar2=555950401
id_isar3=17899825
id_isar4=268501314
id_isar5=0
id_mmfr0=270536963
id_mmfr1=0
id_mmfr2=19070976
id_mmfr3=34611729
midr=1091551472
pmu=Null
system=system
vecRegRenameMode=Full

[system.cpu2.istage2_mmu]
type=ArmStage2MMU
children=stage2_tlb
eventq_index=0
stage2_tlb=system.cpu2.istage2_mmu.stage2_tlb
sys=system
tlb=system.cpu2.itb

[system.cpu2.istage2_mmu.stage2_tlb]
type=ArmTLB
children=walker
eventq_index=0
is_stage2=true
size=32
sys=system
walker=system.cpu2.istage2_mmu.stage2_tlb.walker

[system.cpu2.istage2_mmu.stage2_tlb.walker]
type=ArmTableWalker
clk_domain=system.cpu_clk_domain
default_p_state=UNDEFINED
eventq_index=0
is_stage2=true
num_squash_per_cycle=2
p_state_clk_gate_bins=20
p_state_clk_gate_max=1000000000000
p_state_clk_gate_min=1000
power_model=Null
sys=system

[system.cpu2.itb]
type=ArmTLB
children=walker
eventq_index=0
is_stage2=false
size=64
sys=system
walker=system.cpu2.itb.walker

[system.cpu2.itb.walker]
type=ArmTableWalker
clk_domain=system.cpu_clk_domain
default_p_state=UNDEFINED
eventq_index=0
is_stage2=false
num_squash_per_cycle=2
p_state_clk_gate_bins=20
p_state_clk_gate_max=1000000000000
p_state_clk_gate_min=1000
power_model=Null
sys=system
port=system.membus.slave[13]

[system.cpu2.tracer]
type=ExeTracer
eventq_index=0

[system.cpu3]
type=AtomicSimpleCPU
children=dstage2_mmu dtb interrupts isa istage2_mmu itb tracer
branchPred=Null
checker=Null
clk_domain=system.cpu_clk_domain
cpu_id=3
default_p_state=UNDEFINED
do_checkpoint_insts=true
do_quiesce=true
do_statistics_insts=true
dstage2_mmu=system.cpu3.dstage2_mmu
dtb=system.cpu3.dtb
eventq_index=0
fastmem=false
function_trace=false
function_trace_start=0
interrupts=system.cpu3.interrupts
isa=system.cpu3.isa
istage2_mmu=system.cpu3.istage2_mmu
itb=system.cpu3.itb
max_insts_all_threads=0
max_insts_any_thread=0
max_loads_all_threads=0
max_loads_any_thread=0
numThreads=1
p_state_clk_gate_bins=20
p_state_clk_gate_max=1000000000000
p_state_clk_gate_min=1000
power_model=Null
profile=0
progress_interval=0
simpoint_start_insts=
simulate_data_stalls=false
simulate_inst_stalls=false
socket_id=0
switched_out=false
syscallRetryLatency=10000
system=system
tracer=system.cpu3.tracer
wait_for_remote_gdb=false
width=1
workload=
dcache_port=system.membus.slave[16]
icache_port=system.membus.slave[15]

[system.cpu3.dstage2_mmu]
type=ArmStage2MMU
children=stage2_tlb
eventq_index=0
stage2_tlb=system.cpu3.dstage2_mmu.stage2_tlb
sys=system
tlb=system.cpu3.dtb

[system.cpu3.dstage2_mmu.stage2_tlb]
type=ArmTLB
children=walker
eventq_index=0
is_stage2=true
size=32
sys=system
walker=system.cpu3.dstage2_mmu.stage2_tlb.walker

[system.cpu3.dstage2_mmu.stage2_tlb.walker]
type=ArmTableWalker
clk_domain=system.cpu_clk_domain
default_p_state=UNDEFINED
eventq_index=0
is_stage2=true
num_squash_per_cycle=2
p_state_clk_gate_bins=20
p_state_clk_gate_max=1000000000000
p_state_clk_gate_min=1000
power_model=Null
sys=system

[system.cpu3.dtb]
type=ArmTLB
children=walker
eventq_index=0
is_stage2=false
size=64
sys=system
walker=system.cpu3.dtb.walker

[system.cpu3.dtb.walker]
type=ArmTableWalker
clk_domain=system.cpu_clk_domain
default_p_state=UNDEFINED
eventq_index=0
is_stage2=false
num_squash_per_cycle=2
p_state_clk_gate_bins=20
p_state_clk_gate_max=1000000000000
p_state_clk_gate_min=1000
power_model=Null
sys=system
port=system.membus.slave[18]

[system.cpu3.interrupts]
type=ArmInterrupts
eventq_index=0

[system.cpu3.isa]
type=ArmISA
decoderFlavour=Generic
eventq_index=0
fpsid=1090793632
id_aa64afr0_el1=0
id_aa64afr1_el1=0
id_aa64dfr0_el1=1052678
id_aa64dfr1_el1=0
id_aa64isar0_el1=0
id_aa64isar1_el1=0
id_aa64mmfr0_el1=15728642
id_aa64mmfr1_el1=0
id_isar0=34607377
id_isar1=34677009
id_isar2=555950401
id_isar3=17899825
id_isar4=268501314
id_isar5=0
id_mmfr0=270536963
id_mmfr1=0
id_mmfr2=19070976
id_mmfr3=34611729
midr=1091551472
pmu=Null
system=system
vecRegRenameMode=Full

[system.cpu3.istage2_mmu]
type=ArmStage2MMU
children=stage2_tlb
eventq_index=0
stage2_tlb=system.cpu3.istage2_mmu.stage2_tlb
sys=system
tlb=system.cpu3.itb

[system.cpu3.istage2_mmu.stage2_tlb]
type=ArmTLB
children=walker
eventq_index=0
is_stage2=true
size=32
sys=system
walker=system.cpu3.istage2_mmu.stage2_tlb.walker

[system.cpu3.istage2_mmu.stage2_tlb.walker]
type=ArmTableWalker
clk_domain=system.cpu_clk_domain
default_p_state=UNDEFINED
eventq_index=0
is_stage2=true
num_squash_per_cycle=2
p_state_clk_gate_bins=20
p_state_clk_gate_max=1000000000000
p_state_clk_gate_min=1000
power_model=Null
sys=system

[system.cpu3.itb]
type=ArmTLB
children=walker
eventq_index=0
is_stage2=false
size=64
sys=system
walker=system.cpu3.itb.walker

[system.cpu3.itb.walker]
type=ArmTableWalker
clk_domain=system.cpu_clk_domain
default_p_state=UNDEFINED
eventq_index=0
is_stage2=false
num_squash_per_cycle=2
p_state_clk_gate_bins=20
p_state_clk_gate_max=1000000000000
p_state_clk_gate_min=1000
power_model=Null
sys=system
port=system.membus.slave[17]

[system.cpu3.tracer]
type=ExeTracer
eventq_index=0

[system.cpu_clk_domain]
type=SrcClockDomain
clock=286
domain_id=-1
eventq_index=0
init_perf_level=0
voltage_domain=system.cpu_voltage_domain

[system.cpu_voltage_domain]
type=VoltageDomain
eventq_index=0
voltage=1.000000

[system.dvfs_handler]
type=DVFSHandler
domains=
enable=false
eventq_index=0
sys_clk_domain=system.clk_domain
transition_latency=100000000

[system.intrctrl]
type=IntrControl
eventq_index=0
sys=system

[system.iobridge]
type=Bridge
clk_domain=system.clk_domain
default_p_state=UNDEFINED
delay=50000
eventq_index=0
p_state_clk_gate_bins=20
p_state_clk_gate_max=1000000000000
p_state_clk_gate_min=1000
power_model=Null
ranges=2147483648:4294967295:0:0:0:0
req_size=16
resp_size=16
master=system.membus.slave[2]
slave=system.iobus.master[8]

[system.iobus]
type=NoncoherentXBar
clk_domain=system.clk_domain
default_p_state=UNDEFINED
eventq_index=0
forward_latency=1
frontend_latency=2
p_state_clk_gate_bins=20
p_state_clk_gate_max=1000000000000
p_state_clk_gate_min=1000
power_model=Null
response_latency=2
use_default_range=false
width=16
master=system.realview.realview_io.pio system.realview.uart0.pio system.realview.kmi0.pio system.realview.kmi1.pio system.realview.rtc.pio system.realview.pci_host.pio system.realview.energy_ctrl.pio system.pci_ide.pio system.iobridge.slave
slave=system.bridge.master system.pci_ide.dma

[system.mem_ctrls]
type=DRAMCtrl
IDD0=0.055000
IDD02=0.000000
IDD2N=0.032000
IDD2N2=0.000000
IDD2P0=0.000000
IDD2P02=0.000000
IDD2P1=0.032000
IDD2P12=0.000000
IDD3N=0.038000
IDD3N2=0.000000
IDD3P0=0.000000
IDD3P02=0.000000
IDD3P1=0.038000
IDD3P12=0.000000
IDD4R=0.157000
IDD4R2=0.000000
IDD4W=0.125000
IDD4W2=0.000000
IDD5=0.235000
IDD52=0.000000
IDD6=0.020000
IDD62=0.000000
VDD=1.500000
VDD2=0.000000
activation_limit=4
addr_mapping=RoRaBaCoCh
bank_groups_per_rank=0
banks_per_rank=8
burst_length=8
channels=1
clk_domain=system.clk_domain
conf_table_reported=true
default_p_state=UNDEFINED
device_bus_width=8
device_rowbuffer_size=1024
device_size=536870912
devices_per_rank=8
dll=true
eventq_index=0
in_addr_map=true
kvm_map=true
max_accesses_per_row=16
mem_sched_policy=frfcfs
min_writes_per_switch=16
null=false
p_state_clk_gate_bins=20
p_state_clk_gate_max=1000000000000
p_state_clk_gate_min=1000
page_policy=open_adaptive
power_model=Null
range=2147483648:4294967295:6:19:0:0
ranks_per_channel=2
read_buffer_size=32
static_backend_latency=10000
static_frontend_latency=10000
tBURST=5000
tCCD_L=0
tCK=1250
tCL=13750
tCS=2500
tRAS=35000
tRCD=13750
tREFI=7800000
tRFC=260000
tRP=13750
tRRD=6000
tRRD_L=0
tRTP=7500
tRTW=2500
tWR=15000
tWTR=7500
tXAW=30000
tXP=6000
tXPDLL=0
tXS=270000
tXSDLL=0
write_buffer_size=64
write_high_thresh_perc=85
write_low_thresh_perc=50
port=system.membus.master[6]

[system.membus]
type=CoherentXBar
children=badaddr_responder snoop_filter
clk_domain=system.clk_domain
default_p_state=UNDEFINED
eventq_index=0
forward_latency=4
frontend_latency=3
p_state_clk_gate_bins=20
p_state_clk_gate_max=1000000000000
p_state_clk_gate_min=1000
point_of_coherency=true
power_model=Null
response_latency=2
snoop_filter=system.membus.snoop_filter
snoop_response_latency=4
system=system
use_default_range=false
width=16
default=system.membus.badaddr_responder.pio
master=system.bridge.slave system.realview.nvmem.port system.realview.gic.pio system.realview.vgic.pio system.realview.gicv2m.pio system.realview.hdlcd.pio system.mem_ctrls.port
slave=system.realview.hdlcd.dma system.system_port system.iobridge.master system.cpu0.icache_port system.cpu0.dcache_port system.cpu0.itb.walker.port system.cpu0.dtb.walker.port system.cpu1.icache_port system.cpu1.dcache_port system.cpu1.itb.walker.port system.cpu1.dtb.walker.port system.cpu2.icache_port system.cpu2.dcache_port system.cpu2.itb.walker.port system.cpu2.dtb.walker.port system.cpu3.icache_port system.cpu3.dcache_port system.cpu3.itb.walker.port system.cpu3.dtb.walker.port

[system.membus.badaddr_responder]
type=IsaFake
clk_domain=system.clk_domain
default_p_state=UNDEFINED
eventq_index=0
fake_mem=false
p_state_clk_gate_bins=20
p_state_clk_gate_max=1000000000000
p_state_clk_gate_min=1000
pio_addr=0
pio_latency=100000
pio_size=8
power_model=Null
ret_bad_addr=true
ret_data16=65535
ret_data32=4294967295
ret_data64=18446744073709551615
ret_data8=255
system=system
update_data=false
warn_access=warn
pio=system.membus.default

[system.membus.snoop_filter]
type=SnoopFilter
eventq_index=0
lookup_latency=1
max_capacity=8388608
system=system

[system.pci_ide]
type=IdeController
BAR0=1
BAR0LegacyIO=false
BAR0Size=8
BAR1=1
BAR1LegacyIO=false
BAR1Size=4
BAR2=1
BAR2LegacyIO=false
BAR2Size=8
BAR3=1
BAR3LegacyIO=false
BAR3Size=4
BAR4=1
BAR4LegacyIO=false
BAR4Size=16
BAR5=1
BAR5LegacyIO=false
BAR5Size=0
BIST=0
CacheLineSize=0
CapabilityPtr=0
CardbusCIS=0
ClassCode=1
Command=0
DeviceID=28945
ExpansionROM=0
HeaderType=0
InterruptLine=31
InterruptPin=1
LatencyTimer=0
LegacyIOBase=0
MSICAPBaseOffset=0
MSICAPCapId=0
MSICAPMaskBits=0
MSICAPMsgAddr=0
MSICAPMsgCtrl=0
MSICAPMsgData=0
MSICAPMsgUpperAddr=0
MSICAPNextCapability=0
MSICAPPendingBits=0
MSIXCAPBaseOffset=0
MSIXCAPCapId=0
MSIXCAPNextCapability=0
MSIXMsgCtrl=0
MSIXPbaOffset=0
MSIXTableOffset=0
MaximumLatency=0
MinimumGrant=0
PMCAPBaseOffset=0
PMCAPCapId=0
PMCAPCapabilities=0
PMCAPCtrlStatus=0
PMCAPNextCapability=0
PXCAPBaseOffset=0
PXCAPCapId=0
PXCAPCapabilities=0
PXCAPDevCap2=0
PXCAPDevCapabilities=0
PXCAPDevCtrl=0
PXCAPDevCtrl2=0
PXCAPDevStatus=0
PXCAPLinkCap=0
PXCAPLinkCtrl=0
PXCAPLinkStatus=0
PXCAPNextCapability=0
ProgIF=133
Revision=0
Status=640
SubClassCode=1
SubsystemID=0
SubsystemVendorID=0
VendorID=32902
clk_domain=system.clk_domain
config_latency=20000
ctrl_offset=0
default_p_state=UNDEFINED
disks=system.cf0
eventq_index=0
host=system.realview.pci_host
io_shift=0
p_state_clk_gate_bins=20
p_state_clk_gate_max=1000000000000
p_state_clk_gate_min=1000
pci_bus=0
pci_dev=1
pci_func=0
pio_latency=30000
power_model=Null
system=system
dma=system.iobus.slave[1]
pio=system.iobus.master[7]

[system.realview]
type=RealView
children=dcc energy_ctrl generic_timer gic gicv2m hdlcd kmi0 kmi1 mcc nvmem pci_host realview_io rtc uart0 vgic
eventq_index=0
intrctrl=system.intrctrl
system=system

[system.realview.dcc]
type=SubSystem
children=osc_cpu osc_ddr osc_hsbm osc_pxl osc_smb osc_sys
eventq_index=0
thermal_domain=Null

[system.realview.dcc.osc_cpu]
type=RealViewOsc
dcc=0
device=0
eventq_index=0
freq=16667
parent=system.realview.realview_io
position=0
site=1
voltage_domain=system.voltage_domain

[system.realview.dcc.osc_ddr]
type=RealViewOsc
dcc=0
device=8
eventq_index=0
freq=25000
parent=system.realview.realview_io
position=0
site=1
voltage_domain=system.voltage_domain

[system.realview.dcc.osc_hsbm]
type=RealViewOsc
dcc=0
device=4
eventq_index=0
freq=25000
parent=system.realview.realview_io
position=0
site=1
voltage_domain=system.voltage_domain

[system.realview.dcc.osc_pxl]
type=RealViewOsc
dcc=0
device=5
eventq_index=0
freq=42105
parent=system.realview.realview_io
position=0
site=1
voltage_domain=system.voltage_domain

[system.realview.dcc.osc_smb]
type=RealViewOsc
dcc=0
device=6
eventq_index=0
freq=20000
parent=system.realview.realview_io
position=0
site=1
voltage_domain=system.voltage_domain

[system.realview.dcc.osc_sys]
type=RealViewOsc
dcc=0
device=7
eventq_index=0
freq=16667
parent=system.realview.realview_io
position=0
site=1
voltage_domain=system.voltage_domain

[system.realview.energy_ctrl]
type=EnergyCtrl
clk_domain=system.clk_domain
default_p_state=UNDEFINED
dvfs_handler=system.dvfs_handler
eventq_index=0
p_state_clk_gate_bins=20
p_state_clk_gate_max=1000000000000
p_state_clk_gate_min=1000
pio_addr=268435456
pio_latency=100000
power_model=Null
system=system
pio=system.iobus.master[6]

[system.realview.generic_timer]
type=GenericTimer
eventq_index=0
gic=system.realview.gic
int_phys=29
int_virt=27
system=system

[system.realview.gic]
type=Pl390
clk_domain=system.clk_domain
cpu_addr=738205696
cpu_pio_delay=10000
default_p_state=UNDEFINED
dist_addr=738201600
dist_pio_delay=10000
eventq_index=0
gem5_extensions=false
int_latency=10000
it_lines=512
p_state_clk_gate_bins=20
p_state_clk_gate_max=1000000000000
p_state_clk_gate_min=1000
platform=system.realview
power_model=Null
system=system
pio=system.membus.master[2]

[system.realview.gicv2m]
type=Gicv2m
children=frames
clk_domain=system.clk_domain
default_p_state=UNDEFINED
eventq_index=0
frames=system.realview.gicv2m.frames
gic=system.realview.gic
p_state_clk_gate_bins=20
p_state_clk_gate_max=1000000000000
p_state_clk_gate_min=1000
pio_delay=10000
power_model=Null
system=system
pio=system.membus.master[4]

[system.realview.gicv2m.frames]
type=Gicv2mFrame
addr=740032512
eventq_index=0
spi_base=256
spi_len=64

[system.realview.hdlcd]
type=HDLcd
amba_id=1314816
clk_domain=system.clk_domain
default_p_state=UNDEFINED
enable_capture=true
eventq_index=0
gic=system.realview.gic
int_num=95
p_state_clk_gate_bins=20
p_state_clk_gate_max=1000000000000
p_state_clk_gate_min=1000
pio_addr=721420288
pio_latency=10000
pixel_buffer_size=2048
pixel_chunk=32
power_model=Null
pxl_clk=system.realview.dcc.osc_pxl
system=system
virt_refresh_rate=50000000000
vnc=system.vncserver
workaround_dma_line_count=true
workaround_swap_rb=false
dma=system.membus.slave[0]
pio=system.membus.master[5]

[system.realview.kmi0]
type=Pl050
amba_id=1314896
clk_domain=system.clk_domain
default_p_state=UNDEFINED
eventq_index=0
gic=system.realview.gic
int_delay=1000000
int_num=44
is_mouse=false
p_state_clk_gate_bins=20
p_state_clk_gate_max=1000000000000
p_state_clk_gate_min=1000
pio_addr=470155264
pio_latency=100000
power_model=Null
system=system
vnc=system.vncserver
pio=system.iobus.master[2]

[system.realview.kmi1]
type=Pl050
amba_id=1314896
clk_domain=system.clk_domain
default_p_state=UNDEFINED
eventq_index=0
gic=system.realview.gic
int_delay=1000000
int_num=45
is_mouse=true
p_state_clk_gate_bins=20
p_state_clk_gate_max=1000000000000
p_state_clk_gate_min=1000
pio_addr=470220800
pio_latency=100000
power_model=Null
system=system
vnc=system.vncserver
pio=system.iobus.master[3]

[system.realview.mcc]
type=SubSystem
children=osc_clcd osc_mcc osc_peripheral osc_system_bus temp_crtl
eventq_index=0
thermal_domain=Null

[system.realview.mcc.osc_clcd]
type=RealViewOsc
dcc=0
device=1
eventq_index=0
freq=42105
parent=system.realview.realview_io
position=0
site=0
voltage_domain=system.voltage_domain

[system.realview.mcc.osc_mcc]
type=RealViewOsc
dcc=0
device=0
eventq_index=0
freq=20000
parent=system.realview.realview_io
position=0
site=0
voltage_domain=system.voltage_domain

[system.realview.mcc.osc_peripheral]
type=RealViewOsc
dcc=0
device=2
eventq_index=0
freq=41667
parent=system.realview.realview_io
position=0
site=0
voltage_domain=system.voltage_domain

[system.realview.mcc.osc_system_bus]
type=RealViewOsc
dcc=0
device=4
eventq_index=0
freq=41667
parent=system.realview.realview_io
position=0
site=0
voltage_domain=system.voltage_domain

[system.realview.mcc.temp_crtl]
type=RealViewTemperatureSensor
dcc=0
device=0
eventq_index=0
parent=system.realview.realview_io
position=0
site=0
system=system

[system.realview.nvmem]
type=SimpleMemory
bandwidth=73.000000
clk_domain=system.clk_domain
conf_table_reported=false
default_p_state=UNDEFINED
eventq_index=0
in_addr_map=true
kvm_map=true
latency=30000
latency_var=0
null=false
p_state_clk_gate_bins=20
p_state_clk_gate_max=1000000000000
p_state_clk_gate_min=1000
power_model=Null
range=0:67108863:0:0:0:0
port=system.membus.master[1]

[system.realview.pci_host]
type=GenericArmPciHost
clk_domain=system.clk_domain
conf_base=805306368
conf_device_bits=12
conf_size=268435456
default_p_state=UNDEFINED
eventq_index=0
int_base=100
int_count=4
int_policy=ARM_PCI_INT_DEV
p_state_clk_gate_bins=20
p_state_clk_gate_max=1000000000000
p_state_clk_gate_min=1000
pci_dma_base=0
pci_mem_base=0
pci_pio_base=788529152
platform=system.realview
power_model=Null
system=system
pio=system.iobus.master[5]

[system.realview.realview_io]
type=RealViewCtrl
clk_domain=system.clk_domain
default_p_state=UNDEFINED
eventq_index=0
idreg=35979264
p_state_clk_gate_bins=20
p_state_clk_gate_max=1000000000000
p_state_clk_gate_min=1000
pio_addr=469827584
pio_latency=100000
power_model=Null
proc_id0=335544320
proc_id1=335544320
system=system
pio=system.iobus.master[0]

[system.realview.rtc]
type=PL031
amba_id=3412017
clk_domain=system.clk_domain
default_p_state=UNDEFINED
eventq_index=0
gic=system.realview.gic
int_delay=100000
int_num=36